7
K7 partial
K -1.8282828395678539 3.986598588740444 0.6520278641140547 
K 0.047333458749162026 0.2361536122258369 -6.526333477837081 
K -5.785724064658429 -86.23512779164032 -6.776921621700126 
K -1.6035992801878338 -4.313257298248531 0.23309038813468574 
K -84.19008222429582 -0.4085692030726605 6.7396360247600215 
K 3.5120247367265276 85.75929058895701 7.513459551549454 
K 5.450340314968644 0.06363330981523559 -0.2104571424303288 
